Circuit: * \\wsl$\Ubuntu-20.04\home\lbd\sufst\schematics\vixen\discharge\spice\discharge.asc

Direct Newton iteration for .op point succeeded.

Date: Sun Mar 28 11:30:52 2021
Total elapsed time: 0.119 seconds.

tnom = 27
temp = 27
method = modified trap
totiter = 2097
traniter = 2094
tranpoints = 1048
accept = 1048
rejected = 0
matrix size = 1
fillins = 0
solver = Normal
Matrix Compiler1: off  0.0/[0.0]/0.0
Matrix Compiler2:       4 opcodes  0.0/[0.0]/0.0

